17
TMS
SI         -2.59439300     -0.23712300      0.00009600
C          -1.96435600      0.65419300      1.54462100
H          -0.86831700      0.67065900      1.57596800
H          -2.31243500      1.69366600      1.57474700
H          -2.31455200      0.16091200      2.45926700
C          -1.96459300     -2.02040000      0.00001700
H          -2.31355000     -2.56609400      0.88493500
H          -2.31427900     -2.56593000     -0.88469500
H          -0.86861300     -2.05610800     -0.00026800
C          -4.48566200     -0.23741400     -0.00017400
H          -4.88453300      0.78412900      0.00018200
H          -4.88359100     -0.74808200     -0.88530500
H          -4.88392900     -0.74877100      0.88438400
C          -1.96460200      0.65448300     -1.54443500
H          -2.31409100      1.69345400     -1.57439500
H          -0.86854700      0.67270500     -1.57564900
H          -2.31387700      0.16090800     -2.45929600
