22
dopamine
O     -2.33158827    1.90324395    0.05204669
O     -3.45288968   -0.47124460    0.37321012
N      4.33709192    0.16551438    0.29362167
C      2.10661405   -0.10993743   -0.67966314
C      0.62079598   -0.23561182   -0.42292440
C      2.91795648    0.08557132    0.60357302
C     -0.18237422    0.90195216   -0.31692881
C      0.02151120   -1.46774074   -0.25587568
C     -1.53226977    0.81838896   -0.05200952
C     -1.34075114   -1.56264519    0.01270596
C     -2.12492987   -0.43572743    0.11734436
H      2.29355697    0.72769638   -1.34826040
H      2.47698171   -0.99578880   -1.18305280
H      2.54052562    0.95777703    1.14088437
H      2.76403205   -0.77011970    1.25210418
H      0.25802965    1.87739170   -0.45049059
H      0.60483520   -2.36786844   -0.33618849
H     -1.79443393   -2.53198365    0.13749855
H      4.88321312    0.19170936    1.13290303
H      4.54272968    1.00577810   -0.21284385
H     -1.82929975    2.69323340   -0.08852494
H     -3.74330646   -1.36791983    0.46123396