10
0.3 cis
 C                  1.54355871   -0.49358519   -0.07479285
 H                  2.61097332   -0.41869242    0.11174999
 H                  1.17432711   -1.45588033   -0.42076306
 C                  0.72830497    0.55442524    0.09959087
 H                  1.16399180    1.50953248    0.39504144
 C                 -0.72830497    0.55442524   -0.09959086
 H                 -1.16399179    1.50953248   -0.39504146
 C                 -1.54355871   -0.49358519    0.07479285
 H                 -2.61097332   -0.41869242   -0.11175000
 H                 -1.17432712   -1.45588033    0.42076306
10
0.7 trans
 C                 -0.13035833   -1.85900842   -0.00741624
 H                  0.48368417   -2.73522931   -0.01683685
 H                 -1.19620903   -1.95272007    0.00155110
 C                  0.44187576   -0.63054806   -0.00684078
 H                  1.50772646   -0.53683640   -0.01580870
 C                 -0.44188631    0.63055489    0.00672182
 H                 -1.50773698    0.53684322    0.01569304
 C                  0.13034777    1.85901526    0.00729577
 H                 -0.48369473    2.73523615    0.01671691
 H                  1.19619844    1.95272693   -0.00167453