9
ethanol
 C                  1.24992247   -0.22165481    0.00000000
 H                  1.31006658   -0.83509474    0.87462885
 H                  2.06023400    0.47712370    0.00000000
 H                  1.31006658   -0.83509474   -0.87462885
 C                 -0.08702879    0.54264967    0.00000000
 H                 -0.14633166    1.15756112   -0.87365250
 H                 -0.14633166    1.15756112    0.87365250
 O                 -1.16996897   -0.39123500    0.00000000
 H                 -2.00363249    0.08479560    0.00000000